# generated by A.S. Rosen & G. Zhao
_chemical_formula_structural       NiGeH8C8N4F6
_chemical_formula_sum              "Ni1 Ge1 H8 C8 N4 F6"
_cell_length_a       6.986
_cell_length_b       6.98599
_cell_length_c       7.85432
_cell_angle_alpha    90.0001
_cell_angle_beta     89.9998
_cell_angle_gamma    90

_symmetry_space_group_name_H-M    "P 1"
_symmetry_Int_Tables_number       1

loop_
  _symmetry_equiv_pos_as_xyz
  'x, y, z'

loop_
  _atom_site_type_symbol
  _atom_site_label
  _atom_site_symmetry_multiplicity
  _atom_site_fract_x
  _atom_site_fract_y
  _atom_site_fract_z
  _atom_site_occupancy
  _atom_site_charge
Ni  Ni1       1.0  0.50000  0.50000  0.50000  1.0000 0.698501
Ge  Ge1       1.0  0.50000  0.50000  1.00000  1.0000 1.745876
H   H1        1.0  0.50000  0.17762  0.23383  1.0000 0.110754
H   H2        1.0  0.50000  0.82238  0.23383  1.0000 0.110768
H   H3        1.0  0.82238  0.50000  0.23383  1.0000 0.110732
H   H4        1.0  0.17762  0.50000  0.23383  1.0000 0.110798
H   H5        1.0  0.50000  0.17762  0.76617  1.0000 0.110856
H   H6        1.0  0.50000  0.82239  0.76618  1.0000 0.110779
H   H7        1.0  0.17762  0.50000  0.76617  1.0000 0.110725
H   H8        1.0  0.82238  0.50000  0.76617  1.0000 0.11083
C   C1        1.0  0.50000  0.09961  0.35366  1.0000 0.065589
C   C2        1.0  0.50000  0.90039  0.35366  1.0000 0.065621
C   C3        1.0  0.90039  0.50000  0.35366  1.0000 0.065628
C   C4        1.0  0.09961  0.50000  0.35366  1.0000 0.065531
C   C5        1.0  0.50000  0.09961  0.64634  1.0000 0.065433
C   C6        1.0  0.50000  0.90039  0.64634  1.0000 0.065708
C   C7        1.0  0.09961  0.50000  0.64634  1.0000 0.06565
C   C8        1.0  0.90039  0.50000  0.64634  1.0000 0.065514
N   N1        1.0  0.50000  0.19996  0.50000  1.0000 -0.189631
N   N2        1.0  0.50000  0.80005  0.50000  1.0000 -0.18976
N   N3        1.0  0.80004  0.50000  0.50000  1.0000 -0.189654
N   N4        1.0  0.19996  0.50000  0.50000  1.0000 -0.189654
F   F1        1.0  0.50000  0.50000  0.24125  1.0000 -0.512313
F   F2        1.0  0.50000  0.50000  0.75875  1.0000 -0.512337
F   F3        1.0  0.31720  0.31720  0.00000  1.0000 -0.518008
F   F4        1.0  0.68280  0.68280  0.99999  1.0000 -0.517979
F   F5        1.0  0.68280  0.31720  1.00000  1.0000 -0.51798
F   F6        1.0  0.31720  0.68280  0.00000  1.0000 -0.517978
