# generated by A.S. Rosen & G. Zhao
_chemical_formula_structural       Cd4H48C36N8O20
_chemical_formula_sum              "Cd4 H48 C36 N8 O20"
_cell_length_a       8.39875
_cell_length_b       10.2898
_cell_length_c       16.2487
_cell_angle_alpha    94.4445
_cell_angle_beta     89.9992
_cell_angle_gamma    89.997

_symmetry_space_group_name_H-M    "P 1"
_symmetry_Int_Tables_number       1

loop_
  _symmetry_equiv_pos_as_xyz
  'x, y, z'

loop_
  _atom_site_type_symbol
  _atom_site_label
  _atom_site_symmetry_multiplicity
  _atom_site_fract_x
  _atom_site_fract_y
  _atom_site_fract_z
  _atom_site_occupancy
  _atom_site_charge
Cd  Cd1       1.0  0.03175  0.50547  0.19170  1.0000 0.973614
Cd  Cd2       1.0  0.53175  0.49453  0.30831  1.0000 0.973631
Cd  Cd3       1.0  0.96826  0.49454  0.80829  1.0000 0.973571
Cd  Cd4       1.0  0.46825  0.50546  0.69169  1.0000 0.973589
H   H1        1.0  0.77809  0.74626  0.24457  1.0000 0.100721
H   H2        1.0  0.27813  0.25374  0.25545  1.0000 0.100755
H   H3        1.0  0.22190  0.25375  0.75545  1.0000 0.10078
H   H4        1.0  0.72186  0.74628  0.74454  1.0000 0.10085
H   H5        1.0  0.73967  0.92350  0.35829  1.0000 0.132666
H   H6        1.0  0.23969  0.07651  0.14173  1.0000 0.132534
H   H7        1.0  0.26032  0.07650  0.64173  1.0000 0.132739
H   H8        1.0  0.76028  0.92354  0.85824  1.0000 0.132592
H   H9        1.0  0.21812  0.84639  0.43981  1.0000 0.119899
H   H10       1.0  0.71812  0.15358  0.06019  1.0000 0.119969
H   H11       1.0  0.78188  0.15361  0.56020  1.0000 0.119946
H   H12       1.0  0.28190  0.84639  0.93982  1.0000 0.119982
H   H13       1.0  0.23908  0.67696  0.32236  1.0000 0.094102
H   H14       1.0  0.73909  0.32298  0.17765  1.0000 0.094042
H   H15       1.0  0.76093  0.32305  0.67765  1.0000 0.094032
H   H16       1.0  0.26093  0.67696  0.82237  1.0000 0.094056
H   H17       1.0  0.98844  0.10194  0.02687  1.0000 0.14135
H   H18       1.0  0.48841  0.89806  0.47313  1.0000 0.14148
H   H19       1.0  0.01154  0.89808  0.97311  1.0000 0.141301
H   H20       1.0  0.51154  0.10193  0.52688  1.0000 0.141354
H   H21       1.0  0.16930  0.15510  0.98191  1.0000 0.15053
H   H22       1.0  0.66928  0.84490  0.51809  1.0000 0.150609
H   H23       1.0  0.83069  0.84493  0.01808  1.0000 0.15062
H   H24       1.0  0.33067  0.15508  0.48192  1.0000 0.150572
H   H25       1.0  0.98647  0.21157  0.94604  1.0000 0.157431
H   H26       1.0  0.48644  0.78843  0.55397  1.0000 0.15743
H   H27       1.0  0.01353  0.78845  0.05396  1.0000 0.157436
H   H28       1.0  0.51352  0.21154  0.44603  1.0000 0.157394
H   H29       1.0  0.46798  0.65271  0.03647  1.0000 0.157971
H   H30       1.0  0.96799  0.34727  0.46353  1.0000 0.157958
H   H31       1.0  0.53208  0.34725  0.96352  1.0000 0.158085
H   H32       1.0  0.03206  0.65278  0.53647  1.0000 0.158105
H   H33       1.0  0.32552  0.75080  0.09334  1.0000 0.15095
H   H34       1.0  0.82554  0.24918  0.40666  1.0000 0.15091
H   H35       1.0  0.67452  0.24916  0.90663  1.0000 0.15085
H   H36       1.0  0.17451  0.75085  0.59337  1.0000 0.15086
H   H37       1.0  0.26715  0.59543  0.04725  1.0000 0.169332
H   H38       1.0  0.76715  0.40456  0.45275  1.0000 0.169263
H   H39       1.0  0.73290  0.40452  0.95272  1.0000 0.169241
H   H40       1.0  0.23290  0.59548  0.54727  1.0000 0.169257
H   H41       1.0  0.85167  0.58709  0.05191  1.0000 0.385993
H   H42       1.0  0.35167  0.41291  0.44810  1.0000 0.386081
H   H43       1.0  0.14832  0.41293  0.94809  1.0000 0.385958
H   H44       1.0  0.64831  0.58707  0.55190  1.0000 0.386135
H   H45       1.0  0.72847  0.58929  0.13073  1.0000 0.386995
H   H46       1.0  0.22847  0.41070  0.36926  1.0000 0.386981
H   H47       1.0  0.27153  0.41071  0.86927  1.0000 0.386972
H   H48       1.0  0.77153  0.58929  0.63072  1.0000 0.387082
C   C1        1.0  0.87298  0.77243  0.28857  1.0000 0.110002
C   C2        1.0  0.37300  0.22756  0.21145  1.0000 0.109767
C   C3        1.0  0.12700  0.22758  0.71144  1.0000 0.109555
C   C4        1.0  0.62698  0.77245  0.78854  1.0000 0.109539
C   C5        1.0  0.85174  0.87041  0.35175  1.0000 -0.176516
C   C6        1.0  0.35176  0.12959  0.14827  1.0000 -0.176008
C   C7        1.0  0.14826  0.12959  0.64828  1.0000 -0.176112
C   C8        1.0  0.64821  0.87045  0.85171  1.0000 -0.175887
C   C9        1.0  0.97578  0.89719  0.40816  1.0000 0.187084
C   C10       1.0  0.47578  0.10282  0.09184  1.0000 0.18692
C   C11       1.0  0.02423  0.10281  0.59185  1.0000 0.186966
C   C12       1.0  0.52422  0.89719  0.90815  1.0000 0.186945
C   C13       1.0  0.11849  0.82718  0.39789  1.0000 -0.178569
C   C14       1.0  0.61851  0.17280  0.10211  1.0000 -0.178654
C   C15       1.0  0.88151  0.17282  0.60212  1.0000 -0.178933
C   C16       1.0  0.38149  0.82718  0.89789  1.0000 -0.178819
C   C17       1.0  0.12978  0.73255  0.33263  1.0000 0.10484
C   C18       1.0  0.62981  0.26740  0.16738  1.0000 0.104953
C   C19       1.0  0.87021  0.26745  0.66738  1.0000 0.105267
C   C20       1.0  0.37021  0.73256  0.83264  1.0000 0.10481
C   C21       1.0  0.05663  0.30014  0.06496  1.0000 0.663814
C   C22       1.0  0.55661  0.69986  0.43503  1.0000 0.664127
C   C23       1.0  0.94337  0.69987  0.93503  1.0000 0.6636
C   C24       1.0  0.44337  0.30013  0.56497  1.0000 0.663837
C   C25       1.0  0.04857  0.18427  0.00162  1.0000 -0.525179
C   C26       1.0  0.54855  0.81573  0.49838  1.0000 -0.525436
C   C27       1.0  0.95141  0.81575  0.99837  1.0000 -0.525195
C   C28       1.0  0.45140  0.18426  0.50163  1.0000 -0.525194
C   C29       1.0  0.40916  0.59095  0.15695  1.0000 0.703977
C   C30       1.0  0.90917  0.40904  0.34306  1.0000 0.703709
C   C31       1.0  0.59086  0.40904  0.84305  1.0000 0.703954
C   C32       1.0  0.09086  0.59097  0.65694  1.0000 0.704014
C   C33       1.0  0.36534  0.64994  0.07793  1.0000 -0.535266
C   C34       1.0  0.86534  0.35004  0.42207  1.0000 -0.535123
C   C35       1.0  0.63471  0.35003  0.92205  1.0000 -0.535217
C   C36       1.0  0.13470  0.64999  0.57794  1.0000 -0.535309
N   N1        1.0  0.00950  0.70479  0.27906  1.0000 -0.244444
N   N2        1.0  0.50953  0.29518  0.22095  1.0000 -0.244434
N   N3        1.0  0.99050  0.29522  0.72095  1.0000 -0.244436
N   N4        1.0  0.49047  0.70480  0.77906  1.0000 -0.244276
N   N5        1.0  0.94648  0.99535  0.47251  1.0000 -0.117409
N   N6        1.0  0.44649  0.00466  0.02750  1.0000 -0.117187
N   N7        1.0  0.05352  0.00465  0.52750  1.0000 -0.117153
N   N8        1.0  0.55349  0.99535  0.97249  1.0000 -0.117442
O   O1        1.0  0.30156  0.54816  0.20334  1.0000 -0.592056
O   O2        1.0  0.80157  0.45181  0.29666  1.0000 -0.591874
O   O3        1.0  0.69845  0.45183  0.79666  1.0000 -0.591998
O   O4        1.0  0.19844  0.54817  0.70334  1.0000 -0.59197
O   O5        1.0  0.12052  0.40586  0.04504  1.0000 -0.579384
O   O6        1.0  0.62052  0.59415  0.45495  1.0000 -0.579574
O   O7        1.0  0.87946  0.59415  0.95495  1.0000 -0.579241
O   O8        1.0  0.37946  0.40584  0.54504  1.0000 -0.579277
O   O9        1.0  0.99896  0.28912  0.13662  1.0000 -0.573013
O   O10       1.0  0.49893  0.71088  0.36337  1.0000 -0.573089
O   O11       1.0  0.00103  0.71089  0.86337  1.0000 -0.572949
O   O12       1.0  0.50105  0.28912  0.63664  1.0000 -0.573145
O   O13       1.0  0.55518  0.58715  0.17853  1.0000 -0.565495
O   O14       1.0  0.05518  0.41282  0.32147  1.0000 -0.565369
O   O15       1.0  0.44483  0.41283  0.82147  1.0000 -0.565513
O   O16       1.0  0.94484  0.58719  0.67851  1.0000 -0.565488
O   O17       1.0  0.84245  0.59265  0.11408  1.0000 -0.804065
O   O18       1.0  0.34244  0.40735  0.38592  1.0000 -0.804156
O   O19       1.0  0.15755  0.40736  0.88592  1.0000 -0.804065
O   O20       1.0  0.65755  0.59264  0.61407  1.0000 -0.804317
