# generated by A.S. Rosen & G. Zhao
_chemical_formula_structural       Cu24H96C84I24N48
_chemical_formula_sum              "Cu24 H96 C84 I24 N48"
_cell_length_a       16.805
_cell_length_b       19.3606
_cell_length_c       19.3605
_cell_angle_alpha    111.983
_cell_angle_beta     106.818
_cell_angle_gamma    106.818

_symmetry_space_group_name_H-M    "P 1"
_symmetry_Int_Tables_number       1

loop_
  _symmetry_equiv_pos_as_xyz
  'x, y, z'

loop_
  _atom_site_type_symbol
  _atom_site_label
  _atom_site_symmetry_multiplicity
  _atom_site_fract_x
  _atom_site_fract_y
  _atom_site_fract_z
  _atom_site_occupancy
  _atom_site_charge
Cu  Cu1       1.0  0.42375  0.47133  0.87232  1.0000 0.141719
Cu  Cu2       1.0  0.95249  0.40122  0.52864  1.0000 0.142266
Cu  Cu3       1.0  0.55120  0.12731  0.59861  1.0000 0.141662
Cu  Cu4       1.0  0.05119  0.59862  0.12732  1.0000 0.141656
Cu  Cu5       1.0  0.92375  0.87232  0.47132  1.0000 0.141815
Cu  Cu6       1.0  0.45249  0.52865  0.40123  1.0000 0.142195
Cu  Cu7       1.0  0.26802  0.40144  0.87180  1.0000 0.142618
Cu  Cu8       1.0  0.86673  0.47053  0.59868  1.0000 0.142313
Cu  Cu9       1.0  0.39611  0.12798  0.52949  1.0000 0.142542
Cu  Cu10      1.0  0.89610  0.52949  0.12798  1.0000 0.142554
Cu  Cu11      1.0  0.76801  0.87180  0.40144  1.0000 0.142521
Cu  Cu12      1.0  0.36672  0.59868  0.47053  1.0000 0.142316
Cu  Cu13      1.0  0.42198  0.43353  0.98392  1.0000 0.146793
Cu  Cu14      1.0  0.98801  0.55043  0.56624  1.0000 0.146368
Cu  Cu15      1.0  0.43746  0.01567  0.44952  1.0000 0.14647
Cu  Cu16      1.0  0.93747  0.44952  0.01567  1.0000 0.146526
Cu  Cu17      1.0  0.92197  0.98392  0.43353  1.0000 0.146784
Cu  Cu18      1.0  0.48801  0.56625  0.55043  1.0000 0.14634
Cu  Cu19      1.0  0.38242  0.54997  0.98546  1.0000 0.147034
Cu  Cu20      1.0  0.83190  0.43555  0.45007  1.0000 0.147194
Cu  Cu21      1.0  0.39650  0.01439  0.56453  1.0000 0.147584
Cu  Cu22      1.0  0.89650  0.56453  0.01438  1.0000 0.147557
Cu  Cu23      1.0  0.88242  0.98547  0.54997  1.0000 0.147046
Cu  Cu24      1.0  0.33190  0.45007  0.43556  1.0000 0.147145
H   H1        1.0  0.44731  0.53259  0.74397  1.0000 0.096221
H   H2        1.0  0.91486  0.21177  0.46760  1.0000 0.095559
H   H3        1.0  0.70263  0.25567  0.78796  1.0000 0.095744
H   H4        1.0  0.20264  0.78797  0.25567  1.0000 0.095785
H   H5        1.0  0.94731  0.74398  0.53258  1.0000 0.096148
H   H6        1.0  0.41486  0.46761  0.21177  1.0000 0.095599
H   H7        1.0  0.54200  0.37703  0.81154  1.0000 0.099387
H   H8        1.0  0.16524  0.43477  0.62301  1.0000 0.099759
H   H9        1.0  0.73052  0.18847  0.56519  1.0000 0.099866
H   H10       1.0  0.23050  0.56519  0.18848  1.0000 0.099748
H   H11       1.0  0.04200  0.81154  0.37701  1.0000 0.099299
H   H12       1.0  0.66524  0.62301  0.43477  1.0000 0.099759
H   H13       1.0  0.49452  0.35781  0.26128  1.0000 0.124601
H   H14       1.0  0.13653  0.90320  0.64194  1.0000 0.124773
H   H15       1.0  0.23394  0.73867  0.09675  1.0000 0.124365
H   H16       1.0  0.73395  0.09675  0.73868  1.0000 0.124314
H   H17       1.0  0.99452  0.26128  0.35781  1.0000 0.124667
H   H18       1.0  0.63653  0.64195  0.90321  1.0000 0.124747
H   H19       1.0  0.68411  0.36433  0.11040  1.0000 0.125202
H   H20       1.0  0.31946  0.74575  0.63569  1.0000 0.124769
H   H21       1.0  0.57400  0.88979  0.25450  1.0000 0.124843
H   H22       1.0  0.07400  0.25450  0.88979  1.0000 0.124892
H   H23       1.0  0.18411  0.11040  0.36434  1.0000 0.12523
H   H24       1.0  0.81946  0.63568  0.74575  1.0000 0.124729
H   H25       1.0  0.52634  0.46891  0.64307  1.0000 0.116977
H   H26       1.0  0.05745  0.17443  0.53117  1.0000 0.118222
H   H27       1.0  0.88254  0.35688  0.82559  1.0000 0.117314
H   H28       1.0  0.38254  0.82559  0.35688  1.0000 0.11736
H   H29       1.0  0.02633  0.64306  0.46889  1.0000 0.117108
H   H30       1.0  0.55745  0.53117  0.17443  1.0000 0.118264
H   H31       1.0  0.76355  0.46178  0.82474  1.0000 0.11732
H   H32       1.0  0.30218  0.36310  0.53824  1.0000 0.117509
H   H33       1.0  0.93872  0.17545  0.63696  1.0000 0.117674
H   H34       1.0  0.43870  0.63694  0.17544  1.0000 0.117661
H   H35       1.0  0.26354  0.82473  0.46178  1.0000 0.117266
H   H36       1.0  0.80218  0.53823  0.36309  1.0000 0.117497
H   H37       1.0  0.54502  0.32138  0.61310  1.0000 0.093505
H   H38       1.0  0.22380  0.29207  0.67871  1.0000 0.093943
H   H39       1.0  0.93167  0.38701  0.70833  1.0000 0.094525
H   H40       1.0  0.43166  0.70832  0.38701  1.0000 0.094506
H   H41       1.0  0.04500  0.61308  0.32137  1.0000 0.093582
H   H42       1.0  0.72380  0.67870  0.29206  1.0000 0.093967
H   H43       1.0  0.59286  0.31968  0.70667  1.0000 0.09523
H   H44       1.0  0.27332  0.38722  0.68020  1.0000 0.095026
H   H45       1.0  0.88611  0.29354  0.61306  1.0000 0.095414
H   H46       1.0  0.38610  0.61304  0.29353  1.0000 0.095319
H   H47       1.0  0.09285  0.70666  0.31966  1.0000 0.095219
H   H48       1.0  0.77333  0.68020  0.38722  1.0000 0.095016
H   H49       1.0  0.47061  0.23372  0.12054  1.0000 0.103013
H   H50       1.0  0.23691  0.88666  0.76625  1.0000 0.102529
H   H51       1.0  0.35056  0.87950  0.11344  1.0000 0.103296
H   H52       1.0  0.85056  0.11344  0.87950  1.0000 0.103255
H   H53       1.0  0.97060  0.12054  0.23372  1.0000 0.102976
H   H54       1.0  0.73691  0.76625  0.88666  1.0000 0.102552
H   H55       1.0  0.57441  0.23141  0.11523  1.0000 0.101161
H   H56       1.0  0.34281  0.88346  0.76847  1.0000 0.101194
H   H57       1.0  0.45986  0.88517  0.11680  1.0000 0.101613
H   H58       1.0  0.95986  0.11680  0.88517  1.0000 0.10162
H   H59       1.0  0.07441  0.11523  0.23141  1.0000 0.101098
H   H60       1.0  0.84281  0.76846  0.88347  1.0000 0.101219
H   H61       1.0  0.72830  0.32090  0.24725  1.0000 0.097573
H   H62       1.0  0.40744  0.92629  0.67928  1.0000 0.097411
H   H63       1.0  0.48189  0.75311  0.07396  1.0000 0.098105
H   H64       1.0  0.98189  0.07397  0.75311  1.0000 0.098137
H   H65       1.0  0.22830  0.24725  0.32090  1.0000 0.097591
H   H66       1.0  0.90744  0.67927  0.92629  1.0000 0.097479
H   H67       1.0  0.40561  0.31587  0.06793  1.0000 0.098165
H   H68       1.0  0.08932  0.75200  0.68383  1.0000 0.097589
H   H69       1.0  0.33758  0.93173  0.24800  1.0000 0.098018
H   H70       1.0  0.83758  0.24800  0.93172  1.0000 0.098078
H   H71       1.0  0.90562  0.06794  0.31587  1.0000 0.098164
H   H72       1.0  0.58932  0.68383  0.75200  1.0000 0.097566
H   H73       1.0  0.62700  0.45195  0.03878  1.0000 0.106755
H   H74       1.0  0.17464  0.58663  0.54795  1.0000 0.106192
H   H75       1.0  0.58799  0.96104  0.41356  1.0000 0.106259
H   H76       1.0  0.08799  0.41355  0.96104  1.0000 0.106204
H   H77       1.0  0.12700  0.03878  0.45195  1.0000 0.106712
H   H78       1.0  0.67465  0.54795  0.58664  1.0000 0.106212
H   H79       1.0  0.90635  0.52493  0.78736  1.0000 0.094947
H   H80       1.0  0.38168  0.26235  0.47522  1.0000 0.094557
H   H81       1.0  0.11889  0.21285  0.73728  1.0000 0.095636
H   H82       1.0  0.61887  0.73727  0.21284  1.0000 0.095567
H   H83       1.0  0.40635  0.78737  0.52493  1.0000 0.095
H   H84       1.0  0.88168  0.47522  0.26235  1.0000 0.094456
H   H85       1.0  0.65354  0.37923  0.56603  1.0000 0.100783
H   H86       1.0  0.27411  0.18684  0.62074  1.0000 0.099984
H   H87       1.0  0.08730  0.43414  0.81326  1.0000 0.100054
H   H88       1.0  0.58729  0.81325  0.43413  1.0000 0.100082
H   H89       1.0  0.15354  0.56603  0.37922  1.0000 0.100744
H   H90       1.0  0.77412  0.62075  0.18685  1.0000 0.099913
H   H91       1.0  0.64394  0.44945  0.41820  1.0000 0.106039
H   H92       1.0  0.19463  0.96858  0.55045  1.0000 0.105696
H   H93       1.0  0.22661  0.58179  0.03125  1.0000 0.105994
H   H94       1.0  0.72661  0.03126  0.58179  1.0000 0.105991
H   H95       1.0  0.14394  0.41821  0.44946  1.0000 0.106006
H   H96       1.0  0.69463  0.55045  0.96859  1.0000 0.105677
C   C1        1.0  0.48108  0.49264  0.74463  1.0000 -0.055355
C   C2        1.0  0.98859  0.25234  0.50749  1.0000 -0.05358
C   C3        1.0  0.73591  0.25506  0.74748  1.0000 -0.053959
C   C4        1.0  0.23591  0.74749  0.25506  1.0000 -0.054036
C   C5        1.0  0.98108  0.74463  0.49263  1.0000 -0.054879
C   C6        1.0  0.48859  0.50749  0.25235  1.0000 -0.053745
C   C7        1.0  0.52834  0.41300  0.78210  1.0000 0.096808
C   C8        1.0  0.11553  0.36939  0.58708  1.0000 0.095716
C   C9        1.0  0.74602  0.21791  0.63054  1.0000 0.09532
C   C10       1.0  0.24602  0.63054  0.21792  1.0000 0.095423
C   C11       1.0  0.02834  0.78209  0.41298  1.0000 0.097042
C   C12       1.0  0.61553  0.58708  0.36939  1.0000 0.095662
C   C13       1.0  0.56449  0.36365  0.28167  1.0000 -0.101151
C   C14       1.0  0.20076  0.91782  0.63624  1.0000 -0.102775
C   C15       1.0  0.28358  0.71836  0.08219  1.0000 -0.102043
C   C16       1.0  0.78357  0.08219  0.71836  1.0000 -0.101944
C   C17       1.0  0.06449  0.28168  0.36365  1.0000 -0.101253
C   C18       1.0  0.70076  0.63624  0.91782  1.0000 -0.102692
C   C19       1.0  0.61842  0.36711  0.09077  1.0000 -0.104033
C   C20       1.0  0.25096  0.72338  0.63284  1.0000 -0.101328
C   C21       1.0  0.52789  0.90942  0.27681  1.0000 -0.103407
C   C22       1.0  0.02789  0.27680  0.90942  1.0000 -0.103401
C   C23       1.0  0.11842  0.09077  0.36711  1.0000 -0.10413
C   C24       1.0  0.75097  0.63284  0.72339  1.0000 -0.101082
C   C25       1.0  0.51993  0.46189  0.69445  1.0000 -0.095976
C   C26       1.0  0.05814  0.23286  0.53823  1.0000 -0.098595
C   C27       1.0  0.82493  0.30544  0.76712  1.0000 -0.09795
C   C28       1.0  0.32493  0.76712  0.30544  1.0000 -0.098143
C   C29       1.0  0.01993  0.69444  0.46187  1.0000 -0.096323
C   C30       1.0  0.55814  0.53823  0.23286  1.0000 -0.098559
C   C31       1.0  0.76262  0.45642  0.76671  1.0000 -0.094548
C   C32       1.0  0.30648  0.31040  0.54364  1.0000 -0.094474
C   C33       1.0  0.99579  0.23348  0.68963  1.0000 -0.094139
C   C34       1.0  0.49578  0.68962  0.23347  1.0000 -0.094449
C   C35       1.0  0.26261  0.76670  0.45642  1.0000 -0.094268
C   C36       1.0  0.80648  0.54364  0.31040  1.0000 -0.094289
C   C37       1.0  0.58995  0.36081  0.68046  1.0000 0.021427
C   C38       1.0  0.22927  0.31987  0.63918  1.0000 0.020829
C   C39       1.0  0.90927  0.31967  0.68036  1.0000 0.0189
C   C40       1.0  0.40927  0.68035  0.31967  1.0000 0.018908
C   C41       1.0  0.08994  0.68044  0.36080  1.0000 0.021368
C   C42       1.0  0.72927  0.63917  0.31987  1.0000 0.020832
C   C43       1.0  0.54315  0.27216  0.13785  1.0000 0.02502
C   C44       1.0  0.27084  0.86542  0.72770  1.0000 0.026339
C   C45       1.0  0.40583  0.86228  0.13469  1.0000 0.024908
C   C46       1.0  0.90583  0.13469  0.86228  1.0000 0.024884
C   C47       1.0  0.04315  0.13786  0.27216  1.0000 0.025213
C   C48       1.0  0.77084  0.72770  0.86543  1.0000 0.02621
C   C49       1.0  0.68597  0.34356  0.27338  1.0000 0.078146
C   C50       1.0  0.34236  0.92958  0.65641  1.0000 0.078956
C   C51       1.0  0.41343  0.72686  0.07049  1.0000 0.077652
C   C52       1.0  0.91344  0.07049  0.72686  1.0000 0.077545
C   C53       1.0  0.18597  0.27338  0.34356  1.0000 0.07813
C   C54       1.0  0.84236  0.65640  0.92958  1.0000 0.078868
C   C55       1.0  0.47285  0.34109  0.06888  1.0000 0.078178
C   C56       1.0  0.13136  0.72769  0.65869  1.0000 0.081168
C   C57       1.0  0.40392  0.93090  0.27237  1.0000 0.079563
C   C58       1.0  0.90392  0.27236  0.93089  1.0000 0.079465
C   C59       1.0  0.97285  0.06889  0.34110  1.0000 0.078167
C   C60       1.0  0.63137  0.65869  0.72770  1.0000 0.081212
C   C61       1.0  0.58953  0.41061  0.05584  1.0000 -0.019449
C   C62       1.0  0.17846  0.64501  0.58925  1.0000 -0.019342
C   C63       1.0  0.53361  0.94407  0.35513  1.0000 -0.01896
C   C64       1.0  0.03361  0.35513  0.94407  1.0000 -0.01889
C   C65       1.0  0.08953  0.05584  0.41061  1.0000 -0.019364
C   C66       1.0  0.67847  0.58925  0.64501  1.0000 -0.019633
C   C67       1.0  0.83222  0.48700  0.74719  1.0000 -0.055083
C   C68       1.0  0.34542  0.26020  0.51312  1.0000 -0.05483
C   C69       1.0  0.08492  0.25303  0.73970  1.0000 -0.056051
C   C70       1.0  0.58490  0.73969  0.25302  1.0000 -0.055796
C   C71       1.0  0.33222  0.74719  0.48700  1.0000 -0.055349
C   C72       1.0  0.84542  0.51312  0.26020  1.0000 -0.054809
C   C73       1.0  0.70401  0.41248  0.63103  1.0000 0.092114
C   C74       1.0  0.29148  0.21861  0.58755  1.0000 0.092967
C   C75       1.0  0.07277  0.36914  0.78145  1.0000 0.09288
C   C76       1.0  0.57276  0.78144  0.36913  1.0000 0.092778
C   C77       1.0  0.20401  0.63103  0.41248  1.0000 0.092264
C   C78       1.0  0.79148  0.58755  0.21861  1.0000 0.093191
C   C79       1.0  0.63915  0.40916  0.35893  1.0000 -0.017979
C   C80       1.0  0.23004  0.94961  0.59079  1.0000 -0.016863
C   C81       1.0  0.28103  0.64113  0.05030  1.0000 -0.018072
C   C82       1.0  0.78103  0.05030  0.64113  1.0000 -0.018186
C   C83       1.0  0.13915  0.35894  0.40916  1.0000 -0.018033
C   C84       1.0  0.73005  0.59079  0.94961  1.0000 -0.016887
I   I1        1.0  0.30388  0.52901  0.82955  1.0000 -0.32863
I   I2        1.0  0.77489  0.30066  0.47109  1.0000 -0.329059
I   I3        1.0  0.47417  0.17039  0.69924  1.0000 -0.328698
I   I4        1.0  0.97417  0.69925  0.17038  1.0000 -0.328711
I   I5        1.0  0.80388  0.82955  0.52900  1.0000 -0.32863
I   I6        1.0  0.27489  0.47108  0.30066  1.0000 -0.329068
I   I7        1.0  0.34551  0.30086  0.82795  1.0000 -0.327716
I   I8        1.0  0.04469  0.52738  0.69919  1.0000 -0.328176
I   I9        1.0  0.51726  0.17166  0.47261  1.0000 -0.328021
I   I10       1.0  0.01726  0.47261  0.17166  1.0000 -0.328062
I   I11       1.0  0.84549  0.82794  0.30085  1.0000 -0.327732
I   I12       1.0  0.54469  0.69919  0.52738  1.0000 -0.328149
I   I13       1.0  0.29346  0.44542  0.03429  1.0000 -0.322396
I   I14       1.0  0.84771  0.58897  0.55445  1.0000 -0.32223
I   I15       1.0  0.25870  0.96538  0.41100  1.0000 -0.322269
I   I16       1.0  0.75870  0.41100  0.96538  1.0000 -0.32227
I   I17       1.0  0.79346  0.03429  0.44542  1.0000 -0.322327
I   I18       1.0  0.34771  0.55446  0.58897  1.0000 -0.322234
I   I19       1.0  0.56038  0.58815  0.03661  1.0000 -0.319505
I   I20       1.0  0.97164  0.44820  0.41161  1.0000 -0.319599
I   I21       1.0  0.52362  0.96342  0.55187  1.0000 -0.319508
I   I22       1.0  0.02362  0.55186  0.96342  1.0000 -0.319463
I   I23       1.0  0.06038  0.03663  0.58815  1.0000 -0.319587
I   I24       1.0  0.47164  0.41161  0.44820  1.0000 -0.319559
N   N1        1.0  0.48606  0.46118  0.79855  1.0000 -0.220138
N   N2        1.0  0.02507  0.33772  0.53893  1.0000 -0.21979
N   N3        1.0  0.68718  0.20121  0.66210  1.0000 -0.218902
N   N4        1.0  0.18718  0.66210  0.20121  1.0000 -0.218883
N   N5        1.0  0.98607  0.79855  0.46116  1.0000 -0.220471
N   N6        1.0  0.52507  0.53893  0.33772  1.0000 -0.219618
N   N7        1.0  0.79490  0.45868  0.66233  1.0000 -0.217277
N   N8        1.0  0.33620  0.20363  0.54140  1.0000 -0.217761
N   N9        1.0  0.13242  0.33786  0.79628  1.0000 -0.217985
N   N10       1.0  0.63240  0.79627  0.33785  1.0000 -0.217986
N   N11       1.0  0.29490  0.66233  0.45868  1.0000 -0.217268
N   N12       1.0  0.83620  0.54139  0.20363  1.0000 -0.217841
N   N13       1.0  0.49896  0.39374  0.04250  1.0000 -0.2043
N   N14       1.0  0.10475  0.64865  0.60603  1.0000 -0.205495
N   N15       1.0  0.45623  0.95720  0.35141  1.0000 -0.205456
N   N16       1.0  0.95623  0.35141  0.95720  1.0000 -0.205515
N   N17       1.0  0.99896  0.04251  0.39375  1.0000 -0.204351
N   N18       1.0  0.60476  0.60603  0.64866  1.0000 -0.205461
N   N19       1.0  0.54985  0.41174  0.71906  1.0000 0.020822
N   N20       1.0  0.13824  0.30758  0.58833  1.0000 0.021847
N   N21       1.0  0.83046  0.28100  0.69247  1.0000 0.022558
N   N22       1.0  0.33045  0.69247  0.28101  1.0000 0.022688
N   N23       1.0  0.04985  0.71905  0.41172  1.0000 0.020787
N   N24       1.0  0.63824  0.58833  0.30758  1.0000 0.021817
N   N25       1.0  0.54347  0.32260  0.09829  1.0000 0.00058
N   N26       1.0  0.22055  0.77547  0.67726  1.0000 -0.002456
N   N27       1.0  0.44541  0.90175  0.22465  1.0000 5.6e-05
N   N28       1.0  0.94541  0.22464  0.90175  1.0000 8.3e-05
N   N29       1.0  0.04347  0.09830  0.32260  1.0000 0.000598
N   N30       1.0  0.72055  0.67726  0.77547  1.0000 -0.002374
N   N31       1.0  0.71400  0.39591  0.35283  1.0000 -0.205354
N   N32       1.0  0.31815  0.95674  0.60409  1.0000 -0.205708
N   N33       1.0  0.36203  0.64736  0.04321  1.0000 -0.204592
N   N34       1.0  0.86203  0.04322  0.64735  1.0000 -0.204541
N   N35       1.0  0.21400  0.35283  0.39591  1.0000 -0.205246
N   N36       1.0  0.81815  0.60409  0.95674  1.0000 -0.205674
N   N37       1.0  0.68176  0.40953  0.69259  1.0000 0.021035
N   N38       1.0  0.27232  0.28318  0.59047  1.0000 0.021281
N   N39       1.0  0.98897  0.30756  0.71695  1.0000 0.021364
N   N40       1.0  0.48896  0.71694  0.30756  1.0000 0.021748
N   N41       1.0  0.18175  0.69258  0.40952  1.0000 0.020951
N   N42       1.0  0.77232  0.59046  0.28318  1.0000 0.021131
N   N43       1.0  0.59476  0.32165  0.22769  1.0000 -0.000231
N   N44       1.0  0.27300  0.90581  0.67826  1.0000 -0.000148
N   N45       1.0  0.36782  0.77245  0.09428  1.0000 5e-05
N   N46       1.0  0.86782  0.09428  0.77245  1.0000 0.000137
N   N47       1.0  0.09476  0.22770  0.32165  1.0000 -0.000225
N   N48       1.0  0.77300  0.67825  0.90581  1.0000 -0.000163
