# generated by A.S. Rosen & G. Zhao
data_struc
_chemical_formula_structural       Cd4Ni4H92C80N32
_chemical_formula_sum              "Cd4 Ni4 H92 C80 N32"
_cell_length_a       7.75272
_cell_length_b       10.2857
_cell_length_c       29.7704
_cell_angle_alpha    88.9599
_cell_angle_beta     82.5036
_cell_angle_gamma    67.884

_symmetry_space_group_name_H-M    "P 1"
_symmetry_Int_Tables_number       1

loop_
  _symmetry_equiv_pos_as_xyz
  'x, y, z'

loop_
  _atom_site_type_symbol
  _atom_site_label
  _atom_site_symmetry_multiplicity
  _atom_site_fract_x
  _atom_site_fract_y
  _atom_site_fract_z
  _atom_site_occupancy
  _atom_site_charge
Cd  Cd1       1.0  0.96607  0.42229  0.85945  1.0000 0.850719
Cd  Cd2       1.0  0.24776  0.07731  0.64050  1.0000 0.850105
Cd  Cd3       1.0  0.03393  0.57771  0.14055  1.0000 0.850649
Cd  Cd4       1.0  0.75225  0.92270  0.35950  1.0000 0.850021
Ni  Ni1       1.0  0.61221  0.24956  0.74997  1.0000 0.135362
Ni  Ni2       1.0  0.38780  0.75043  0.25003  1.0000 0.135375
Ni  Ni3       1.0  0.50000  0.50000  1.00000  1.0000 0.133265
Ni  Ni4       1.0  1.00000  1.00000  0.50001  1.0000 0.134914
H   H1        1.0  0.08288  0.28337  0.94091  1.0000 0.275429
H   H2        1.0  0.30705  0.21646  0.55904  1.0000 0.274996
H   H3        1.0  0.91712  0.71663  0.05909  1.0000 0.275442
H   H4        1.0  0.69295  0.78354  0.44096  1.0000 0.275055
H   H5        1.0  0.20250  0.17505  0.89883  1.0000 0.274149
H   H6        1.0  0.27673  0.32460  0.60113  1.0000 0.273709
H   H7        1.0  0.79750  0.82494  0.10117  1.0000 0.274146
H   H8        1.0  0.72327  0.67540  0.39886  1.0000 0.273727
H   H9        1.0  0.79718  0.23971  0.92168  1.0000 0.077948
H   H10       1.0  0.95829  0.26049  0.57844  1.0000 0.07714
H   H11       1.0  0.20282  0.76029  0.07832  1.0000 0.077959
H   H12       1.0  0.04171  0.73950  0.42155  1.0000 0.077136
H   H13       1.0  0.96648  0.09741  0.88847  1.0000 0.08318
H   H14       1.0  0.95285  0.40270  0.61159  1.0000 0.082832
H   H15       1.0  0.03352  0.90258  0.11153  1.0000 0.083151
H   H16       1.0  0.04715  0.59729  0.38841  1.0000 0.082717
H   H17       1.0  0.20810  0.90425  0.92763  1.0000 0.095817
H   H18       1.0  0.03978  0.59601  0.57232  1.0000 0.095092
H   H19       1.0  0.79191  0.09575  0.07237  1.0000 0.095851
H   H20       1.0  0.96021  0.40399  0.42767  1.0000 0.095083
H   H21       1.0  0.74190  0.23487  0.00242  1.0000 0.073188
H   H22       1.0  0.97934  0.26498  0.49764  1.0000 0.0725
H   H23       1.0  0.25810  0.76513  0.99758  1.0000 0.07318
H   H24       1.0  0.02065  0.73502  0.50236  1.0000 0.072501
H   H25       1.0  0.87158  0.68706  0.81311  1.0000 0.263082
H   H26       1.0  0.37168  0.81260  0.68690  1.0000 0.262437
H   H27       1.0  0.12841  0.31294  0.18689  1.0000 0.263035
H   H28       1.0  0.62832  0.18740  0.31310  1.0000 0.262411
H   H29       1.0  0.72189  0.61528  0.80480  1.0000 0.267977
H   H30       1.0  0.14196  0.88429  0.69530  1.0000 0.268621
H   H31       1.0  0.27810  0.38471  0.19520  1.0000 0.267942
H   H32       1.0  0.85804  0.11572  0.30469  1.0000 0.268716
H   H33       1.0  0.10583  0.53959  0.75717  1.0000 0.089164
H   H34       1.0  0.40280  0.96018  0.74278  1.0000 0.088231
H   H35       1.0  0.89416  0.46040  0.24283  1.0000 0.089129
H   H36       1.0  0.59721  0.03982  0.25722  1.0000 0.088231
H   H37       1.0  0.96396  0.44361  0.75030  1.0000 0.091482
H   H38       1.0  0.15809  0.05590  0.74977  1.0000 0.09097
H   H39       1.0  0.03603  0.55639  0.24970  1.0000 0.091537
H   H40       1.0  0.84191  0.94410  0.25023  1.0000 0.090992
H   H41       1.0  0.92794  0.82162  0.74404  1.0000 0.092126
H   H42       1.0  0.49412  0.67800  0.75591  1.0000 0.092042
H   H43       1.0  0.07206  0.17838  0.25596  1.0000 0.092123
H   H44       1.0  0.50587  0.32199  0.24408  1.0000 0.09208
H   H45       1.0  0.81205  0.97077  0.67937  1.0000 0.099738
H   H46       1.0  0.46332  0.52872  0.82062  1.0000 0.100143
H   H47       1.0  0.18795  0.02923  0.32063  1.0000 0.099716
H   H48       1.0  0.53667  0.47127  0.17938  1.0000 0.100101
H   H49       1.0  0.67881  0.64095  0.62396  1.0000 0.098474
H   H50       1.0  0.94525  0.85835  0.87627  1.0000 0.099098
H   H51       1.0  0.32120  0.35905  0.37604  1.0000 0.098451
H   H52       1.0  0.05474  0.14165  0.12373  1.0000 0.099085
H   H53       1.0  0.79513  0.49339  0.68777  1.0000 0.101719
H   H54       1.0  0.97730  0.00600  0.81243  1.0000 0.102162
H   H55       1.0  0.20487  0.50661  0.31223  1.0000 0.101711
H   H56       1.0  0.02270  0.99400  0.18757  1.0000 0.102204
H   H57       1.0  0.23439  0.64648  0.92331  1.0000 0.071555
H   H58       1.0  0.80397  0.85280  0.57682  1.0000 0.071594
H   H59       1.0  0.76560  0.35353  0.07669  1.0000 0.071502
H   H60       1.0  0.19603  0.14721  0.42318  1.0000 0.071613
H   H61       1.0  0.31149  0.49200  0.88902  1.0000 0.091133
H   H62       1.0  0.69227  0.00730  0.61109  1.0000 0.091196
H   H63       1.0  0.68850  0.50800  0.11098  1.0000 0.091112
H   H64       1.0  0.30773  0.99270  0.38891  1.0000 0.091212
H   H65       1.0  0.01770  0.54104  0.93940  1.0000 0.281086
H   H66       1.0  0.49828  0.95850  0.56059  1.0000 0.280977
H   H67       1.0  0.98230  0.45896  0.06060  1.0000 0.281141
H   H68       1.0  0.50172  0.04150  0.43941  1.0000 0.281023
H   H69       1.0  0.91088  0.67606  0.90982  1.0000 0.261103
H   H70       1.0  0.49634  0.82343  0.59012  1.0000 0.259989
H   H71       1.0  0.08911  0.32394  0.09018  1.0000 0.261129
H   H72       1.0  0.50366  0.17657  0.40988  1.0000 0.25997
H   H73       1.0  0.62268  0.78990  0.95433  1.0000 0.266322
H   H74       1.0  0.36535  0.71000  0.54582  1.0000 0.266928
H   H75       1.0  0.37731  0.21010  0.04567  1.0000 0.266385
H   H76       1.0  0.63465  0.29001  0.45418  1.0000 0.266997
H   H77       1.0  0.54085  0.74293  0.87854  1.0000 0.096744
H   H78       1.0  0.16116  0.75679  0.62167  1.0000 0.096543
H   H79       1.0  0.45914  0.25708  0.12146  1.0000 0.096706
H   H80       1.0  0.83883  0.24321  0.37834  1.0000 0.096574
H   H81       1.0  0.48929  0.98072  0.82974  1.0000 0.114217
H   H82       1.0  0.29925  0.51919  0.67049  1.0000 0.114079
H   H83       1.0  0.51072  0.01931  0.17026  1.0000 0.114173
H   H84       1.0  0.70074  0.48080  0.32951  1.0000 0.114094
H   H85       1.0  0.55286  0.16334  0.88434  1.0000 0.123114
H   H86       1.0  0.60002  0.33685  0.61584  1.0000 0.122851
H   H87       1.0  0.44716  0.83667  0.11566  1.0000 0.123116
H   H88       1.0  0.39996  0.66314  0.38416  1.0000 0.122776
H   H89       1.0  0.63845  0.02698  0.96324  1.0000 0.100833
H   H90       1.0  0.62753  0.47314  0.53689  1.0000 0.100727
H   H91       1.0  0.36156  0.97301  0.03677  1.0000 0.100817
H   H92       1.0  0.37246  0.52686  0.46311  1.0000 0.100797
C   C1        1.0  0.74657  0.27881  0.79240  1.0000 0.03659
C   C2        1.0  0.81821  0.22056  0.70755  1.0000 0.034486
C   C3        1.0  0.25343  0.72118  0.20760  1.0000 0.036527
C   C4        1.0  0.18179  0.77944  0.29245  1.0000 0.034562
C   C5        1.0  0.40293  0.29005  0.79220  1.0000 0.048583
C   C6        1.0  0.48559  0.20904  0.70775  1.0000 0.047462
C   C7        1.0  0.59708  0.70994  0.20780  1.0000 0.04865
C   C8        1.0  0.51441  0.79096  0.29225  1.0000 0.047323
C   C9        1.0  0.59027  0.50242  0.94006  1.0000 0.034616
C   C10       1.0  0.03254  0.99738  0.55995  1.0000 0.034614
C   C11       1.0  0.40973  0.49759  0.05994  1.0000 0.034379
C   C12       1.0  0.96747  0.00260  0.44006  1.0000 0.034435
C   C13       1.0  0.33893  0.41379  0.98829  1.0000 -0.002211
C   C14       1.0  0.74105  0.08584  0.51175  1.0000 -0.003545
C   C15       1.0  0.66108  0.58622  0.01171  1.0000 -0.002015
C   C16       1.0  0.25896  0.91415  0.48826  1.0000 -0.003261
C   C17       1.0  0.94279  0.16405  0.91879  1.0000 -0.035461
C   C18       1.0  0.02573  0.33600  0.58126  1.0000 -0.0334
C   C19       1.0  0.05721  0.83595  0.08121  1.0000 -0.035489
C   C20       1.0  0.97427  0.66400  0.41873  1.0000 -0.033191
C   C21       1.0  0.97145  0.07822  0.96050  1.0000 0.078539
C   C22       1.0  0.01023  0.42180  0.53953  1.0000 0.077865
C   C23       1.0  0.02855  0.92178  0.03950  1.0000 0.078576
C   C24       1.0  0.98978  0.57819  0.46046  1.0000 0.077589
C   C25       1.0  0.11627  0.94574  0.95937  1.0000 -0.128765
C   C26       1.0  0.02135  0.55436  0.54059  1.0000 -0.128804
C   C27       1.0  0.88374  0.05426  0.04063  1.0000 -0.128721
C   C28       1.0  0.97865  0.44563  0.45940  1.0000 -0.128545
C   C29       1.0  0.85586  0.13152  0.00149  1.0000 -0.130765
C   C30       1.0  0.98893  0.36840  0.49856  1.0000 -0.129646
C   C31       1.0  0.14415  0.86848  0.99851  1.0000 -0.130766
C   C32       1.0  0.01108  0.63159  0.50144  1.0000 -0.129435
C   C33       1.0  0.95973  0.54944  0.75699  1.0000 -0.029721
C   C34       1.0  0.26643  0.95012  0.74303  1.0000 -0.028293
C   C35       1.0  0.04027  0.45056  0.24301  1.0000 -0.029755
C   C36       1.0  0.73357  0.04988  0.25697  1.0000 -0.028294
C   C37       1.0  0.87475  0.64514  0.71990  1.0000 0.074004
C   C38       1.0  0.24047  0.85432  0.78015  1.0000 0.075489
C   C39       1.0  0.12525  0.35486  0.28010  1.0000 0.074024
C   C40       1.0  0.75953  0.14567  0.21985  1.0000 0.075498
C   C41       1.0  0.87451  0.78153  0.71745  1.0000 -0.140163
C   C42       1.0  0.37423  0.71799  0.78257  1.0000 -0.140301
C   C43       1.0  0.12549  0.21847  0.28255  1.0000 -0.140254
C   C44       1.0  0.62577  0.28200  0.21743  1.0000 -0.140321
C   C45       1.0  0.80868  0.86581  0.68135  1.0000 -0.135745
C   C46       1.0  0.35697  0.63366  0.81870  1.0000 -0.136172
C   C47       1.0  0.19132  0.13419  0.31865  1.0000 -0.135639
C   C48       1.0  0.64303  0.36633  0.18130  1.0000 -0.136165
C   C49       1.0  0.74070  0.81657  0.64657  1.0000 0.087621
C   C50       1.0  0.20518  0.68281  0.85355  1.0000 0.08789
C   C51       1.0  0.25930  0.18343  0.35343  1.0000 0.087542
C   C52       1.0  0.79481  0.31719  0.14645  1.0000 0.08782
C   C53       1.0  0.73217  0.68303  0.65011  1.0000 -0.137565
C   C54       1.0  0.06668  0.81637  0.85007  1.0000 -0.138859
C   C55       1.0  0.26784  0.31697  0.34989  1.0000 -0.137609
C   C56       1.0  0.93332  0.18363  0.14993  1.0000 -0.138797
C   C57       1.0  0.79855  0.59854  0.68630  1.0000 -0.138162
C   C58       1.0  0.08444  0.90088  0.81385  1.0000 -0.139704
C   C59       1.0  0.20145  0.40146  0.31369  1.0000 -0.13805
C   C60       1.0  0.91556  0.09912  0.18615  1.0000 -0.139796
C   C61       1.0  0.20084  0.59685  0.89487  1.0000 -0.027083
C   C62       1.0  0.69215  0.90247  0.60522  1.0000 -0.027178
C   C63       1.0  0.79915  0.40315  0.10513  1.0000 -0.026894
C   C64       1.0  0.30785  0.09753  0.39478  1.0000 -0.027182
C   C65       1.0  0.55422  0.84019  0.88724  1.0000 -0.055073
C   C66       1.0  0.28052  0.65963  0.61294  1.0000 -0.054952
C   C67       1.0  0.44578  0.15983  0.11276  1.0000 -0.055034
C   C68       1.0  0.71947  0.34037  0.38706  1.0000 -0.054943
C   C69       1.0  0.52822  0.96224  0.86369  1.0000 -0.199126
C   C70       1.0  0.35341  0.53771  0.63652  1.0000 -0.198706
C   C71       1.0  0.47178  0.03777  0.13631  1.0000 -0.199135
C   C72       1.0  0.64659  0.46229  0.36348  1.0000 -0.198745
C   C73       1.0  0.56013  0.05826  0.89242  1.0000 -0.190176
C   C74       1.0  0.51006  0.44183  0.60776  1.0000 -0.189477
C   C75       1.0  0.43988  0.94175  0.10758  1.0000 -0.190241
C   C76       1.0  0.48993  0.55817  0.39224  1.0000 -0.189292
C   C77       1.0  0.60422  0.99193  0.93270  1.0000 -0.030059
C   C78       1.0  0.52777  0.50810  0.56744  1.0000 -0.0295
C   C79       1.0  0.39579  0.00807  0.06730  1.0000 -0.029808
C   C80       1.0  0.47222  0.49190  0.43256  1.0000 -0.029589
N   N1        1.0  0.83828  0.29454  0.81858  1.0000 -0.357192
N   N2        1.0  0.95178  0.20515  0.68138  1.0000 -0.355077
N   N3        1.0  0.16173  0.70546  0.18142  1.0000 -0.357131
N   N4        1.0  0.04822  0.79485  0.31862  1.0000 -0.355114
N   N5        1.0  0.26600  0.32344  0.81839  1.0000 -0.360403
N   N6        1.0  0.40826  0.17585  0.68151  1.0000 -0.359302
N   N7        1.0  0.73401  0.67655  0.18161  1.0000 -0.360452
N   N8        1.0  0.59174  0.82415  0.31849  1.0000 -0.359178
N   N9        1.0  0.65560  0.50684  0.90244  1.0000 -0.376683
N   N10       1.0  0.06450  0.99295  0.59758  1.0000 -0.377085
N   N11       1.0  0.34439  0.49316  0.09756  1.0000 -0.376469
N   N12       1.0  0.93552  0.00704  0.40243  1.0000 -0.376848
N   N13       1.0  0.23111  0.36098  0.98378  1.0000 -0.37499
N   N14       1.0  0.57598  0.13857  0.51626  1.0000 -0.374238
N   N15       1.0  0.76889  0.63902  0.01622  1.0000 -0.375131
N   N16       1.0  0.42401  0.86144  0.48375  1.0000 -0.374483
N   N17       1.0  0.06906  0.24256  0.91089  1.0000 -0.556326
N   N18       1.0  0.22257  0.25724  0.58908  1.0000 -0.556246
N   N19       1.0  0.93094  0.75744  0.08911  1.0000 -0.556297
N   N20       1.0  0.77743  0.74277  0.41092  1.0000 -0.556338
N   N21       1.0  0.86216  0.59509  0.80354  1.0000 -0.559598
N   N22       1.0  0.26078  0.90453  0.69651  1.0000 -0.560083
N   N23       1.0  0.13784  0.40491  0.19646  1.0000 -0.559487
N   N24       1.0  0.73922  0.09548  0.30349  1.0000 -0.560159
N   N25       1.0  0.01970  0.58043  0.90751  1.0000 -0.567615
N   N26       1.0  0.50739  0.91903  0.59248  1.0000 -0.565982
N   N27       1.0  0.98029  0.41957  0.09249  1.0000 -0.567741
N   N28       1.0  0.49261  0.08098  0.40752  1.0000 -0.565966
N   N29       1.0  0.60176  0.85962  0.92894  1.0000 -0.201183
N   N30       1.0  0.38904  0.64029  0.57121  1.0000 -0.202077
N   N31       1.0  0.39825  0.14038  0.07105  1.0000 -0.201373
N   N32       1.0  0.61096  0.35971  0.42879  1.0000 -0.202253
